Info: SIMULATION PARAMETERS:
Info: TIMESTEP               2
Info: NUMBER OF STEPS        0
Info: STEPS PER CYCLE        20
Info: PERIODIC CELL BASIS 1  50 0 0
Info: PERIODIC CELL BASIS 2  0 50 0
Info: PERIODIC CELL BASIS 3  0 0 50
Info: PERIODIC CELL CENTER   0 0 0
Info: WRAPPING WATERS AROUND PERIODIC BOUNDARIES ON OUTPUT.
Info: WRAPPING ALL CLUSTERS AROUND PERIODIC BOUNDARIES ON OUTPUT.
Info: FIRST LDB TIMESTEP     100
Info: LAST LDB TIMESTEP     -1
Info: HOM BACKGROUND SCALING 1
Info: PME BACKGROUND SCALING 1
Info: MIN ATOMS PER PATCH    40
Info: INITIAL TEMPERATURE    0
Info: CENTER OF MASS MOVING INITIALLY? NO
Info: DIELECTRIC             1
Info: EXCLUDE                SCALED ONE-FOUR
Info: 1-4 ELECTROSTATICS SCALED BY 1
Info: MODIFIED 1-4 VDW PARAMETERS WILL BE USED
Info: DCD FILENAME           ../output/md1/md1.dcd
Info: DCD FREQUENCY          100
Info: DCD FIRST STEP         100
Info: DCD FILE WILL CONTAIN UNIT CELL DATA
Info: XST FILENAME           ../output/md1/md1.xst
Info: XST FREQUENCY          100
Info: NO VELOCITY DCD OUTPUT
Info: NO FORCE DCD OUTPUT
Info: OUTPUT FILENAME        ../output/md1/md1
Info: BINARY OUTPUT FILES WILL BE USED
Info: RESTART FILENAME       ../output/md1/md1.restart
Info: RESTART FREQUENCY      100
Info: BINARY RESTART FILES WILL BE USED
Info: SWITCHING ACTIVE
Info: VDW FORCE SWITCHING ACTIVE
Info: SWITCHING ON           10
Info: SWITCHING OFF          12
Info: PAIRLIST DISTANCE      13.5
Info: PAIRLIST SHRINK RATE   0.01
Info: PAIRLIST GROW RATE     0.01
Info: PAIRLIST TRIGGER       0.3
Info: PAIRLISTS PER CYCLE    2
Info: PAIRLISTS ENABLED
Info: MARGIN                 0.96
Info: HYDROGEN GROUP CUTOFF  2.5
Info: PATCH DIMENSION        16.96
Info: ENERGY OUTPUT STEPS    100
Info: CROSSTERM ENERGY INCLUDED IN DIHEDRAL
Info: TIMING OUTPUT STEPS    1000
Info: PRESSURE OUTPUT STEPS  100
Info: VELOCITY REASSIGNMENT FREQ  100
Info: VELOCITY REASSIGNMENT TEMP  0
Info: VELOCITY REASSIGNMENT INCR  31
Info: VELOCITY REASSIGNMENT HOLD  310
Info: LANGEVIN PISTON PRESSURE CONTROL ACTIVE
Info:        TARGET PRESSURE IS 1.01325 BAR
Info:     OSCILLATION PERIOD IS 200 FS
Info:             DECAY TIME IS 100 FS
Info:     PISTON TEMPERATURE IS 310 K
Info:       PRESSURE CONTROL IS GROUP-BASED
Info:    INITIAL STRAIN RATE IS 0 0 0
Info:       CELL FLUCTUATION IS ANISOTROPIC
Info:     CONSTANT AREA PRESSURE CONTROL ACTIVE
Info: ACCELERATED MD ACTIVE
Info: BOOSTING TOTAL POTENTIAL
Info: accelMDG THRESHOLD ENERGY SET TO LOWER BOUND Vmax
Info: accelMDG 500 CONVENTIONAL MD STEPS (WITH 100 PREPARATION STEPS)
Info: accelMDG 500 EQUILIBRATION STEPS (WITH 100 PREPARATION STEPS)
Info: accelMDGSigma0P: 5 KCAL/MOL
Info: accelMD WILL BE DONE FROM STEP 100 TO THE END OF THE SIMULATION
Info: accelMD OUTPUT FREQUENCY 100
Info: PARTICLE MESH EWALD (PME) ACTIVE
Info: PME TOLERANCE               1e-06
Info: PME EWALD COEFFICIENT       0.257952
Info: PME INTERPOLATION ORDER     4
Info: PME GRID DIMENSIONS         54 54 54
Info: PME MAXIMUM GRID SPACING    1
Info: FULL ELECTROSTATIC EVALUATION FREQUENCY      2
Info: USING VERLET I (r-RESPA) MTS SCHEME.
Info: C1 SPLITTING OF LONG RANGE ELECTROSTATICS
Info: PLACING ATOMS IN PATCHES BY HYDROGEN GROUPS
Info: RIGID BONDS TO HYDROGEN : ALL
Info:         ERROR TOLERANCE : 1e-08
Info:          MAX ITERATIONS : 100
Info: RIGID WATER USING SETTLE ALGORITHM
Info: RANDOM NUMBER SEED     1499045092
Info: USE HYDROGEN BONDS?    NO
Info: COORDINATE PDB         ../system/system.pdb
Info: STRUCTURE FILE         ../system/system.psf
Info: PARAMETER file: CHARMM format!
Info: PARAMETERS             ../forcefield/par_all36m_prot.prm
Info: PARAMETERS             ../forcefield/par_all36_na.prm
Info: PARAMETERS             ../forcefield/par_all36_lipid.prm
Info: PARAMETERS             ../forcefield/par_all36_carb.prm
Info: PARAMETERS             ../forcefield/par_all36_cgenff.prm
Info: PARAMETERS             ../forcefield/toppar_water_ions.str
Info: USING ARITHMETIC MEAN TO COMBINE L-J SIGMA PARAMETERS
Info: SKIPPING rtf SECTION IN STREAM FILE
Info: SUMMARY OF PARAMETERS:
Info: 933 BONDS
Info: 2721 ANGLES
Info: 6679 DIHEDRAL
Info: 193 IMPROPER
Info: 6 CROSSTERM
Info: 352 VDW
Info: 17 VDW_PAIRS
Info: 0 NBTHOLE_PAIRS
Info: STRUCTURE SUMMARY:
Info: 11741 ATOMS
Info: 7826 BONDS
Info: 3913 ANGLES
Info: 0 DIHEDRALS
Info: 0 IMPROPERS
Info: 0 CROSSTERMS
Info: 0 EXCLUSIONS
Info: 11739 RIGID BONDS
Info: 23481 DEGREES OF FREEDOM
Info: 3915 HYDROGEN GROUPS
Info: 3 ATOMS IN LARGEST HYDROGEN GROUP
Info: 3915 MIGRATION GROUPS
Info: 3 ATOMS IN LARGEST MIGRATION GROUP
Info: TOTAL MASS = 70552.7 amu
Info: TOTAL CHARGE = 0 e
Info: MASS DENSITY = 0.937266 g/cm^3
Info: ATOM DENSITY = 0.093928 atoms/A^3
Info: ADDED 11739 IMPLICIT EXCLUSIONS
Info: NONBONDED TABLE R-SQUARED SPACING: 0.0625
Info: NONBONDED TABLE SIZE: 769 POINTS
Info: REMOVING COM VELOCITY 0 0 0
Info: Updated CUDA force table with 4096 elements.
Info: Updated CUDA LJ table with 352 x 352 elements.
Info: Found 4 unique exclusion lists needing 4 bytes
TCL: Minimizing for 100 steps
ETITLE: TS BOND ANGLE DIHED IMPRP ELECT VDW BOUNDARY MISC KINETIC TOTAL TEMP POTENTIAL TOTAL3 TEMPAVG PRESSURE GPRESSURE VOLUME PRESSAVG GPRESSAVG
ENERGY: 0 0.0000 0.0000 0.0000 0.0000 -37495.7086 202342.1122 0.0000 0.0000 0.0000 164846.4036 0.0000 164846.4036 164846.4036 0.0000 -139.5679 -24812.1198 125000.0000 -139.5679 -24812.1198
ENERGY: 20 0.0000 0.0000 0.0000 0.0000 -42828.1310 2908.4386 0.0000 0.0000 0.0000 -39919.6925 0.0000 -39919.6925 -39919.6925 0.0000 -61.3579 -20275.2198 125000.0000 -61.3579 -20275.2198
ENERGY: 40 0.0000 0.0000 0.0000 0.0000 -46045.9400 3385.0210 0.0000 0.0000 0.0000 -42660.9190 0.0000 -42660.9190 -42660.9190 0.0000 -40.7294 -22009.2419 125000.0000 -40.7294 -22009.2419
ENERGY: 60 0.0000 0.0000 0.0000 0.0000 -46802.6190 3639.9965 0.0000 0.0000 0.0000 -43162.6226 0.0000 -43162.6226 -43162.6226 0.0000 -38.7481 -22410.6311 125000.0000 -38.7481 -22410.6311
ENERGY: 80 0.0000 0.0000 0.0000 0.0000 -47246.4304 3775.9829 0.0000 0.0000 0.0000 -43470.4475 0.0000 -43470.4475 -43470.4475 0.0000 -37.3513 -22643.2916 125000.0000 -37.3513 -22643.2916
ENERGY: 100 0.0000 0.0000 0.0000 0.0000 -47855.8176 4017.1757 0.0000 0.0000 0.0000 -43838.6419 0.0000 -43838.6419 -43838.6419 0.0000 -36.7797 -22962.9000 125000.0000 -36.7797 -22962.9000
TCL: Setting parameter firsttimestep to 0
TCL: Running for 1000 steps
ETITLE: TS BOND ANGLE DIHED IMPRP ELECT VDW BOUNDARY MISC KINETIC TOTAL TEMP POTENTIAL TOTAL3 TEMPAVG PRESSURE GPRESSURE VOLUME PRESSAVG GPRESSAVG
ENERGY: 0 0.0000 0.0000 0.0000 0.0000 -47855.8176 4017.1757 0.0000 0.0000 0.0000 -43838.6419 0.0000 -43838.6419 -43839.5682 0.0000 -6526.7239 -6496.0154 125000.0000 -6526.7239 -6496.0154
ENERGY: 200 0.0000 0.0000 0.0000 0.0000 -51932.2083 6084.7777 0.0000 0.0000 1440.4165 -44407.0141 61.7393 -45847.4306 -44279.0436 41.1526 -2531.0036 -2405.3751 115873.0255 -1336.6475 -1335.7670
ENERGY: 400 0.0000 0.0000 0.0000 0.0000 -51844.3114 6353.7885 0.0000 0.0000 2894.0268 -42596.4961 124.0442 -45490.5229 -42121.1692 76.3730 -1353.4871 -1187.3138 114643.6784 -1026.4985 -1025.2246
ENERGY: 600 0.0000 0.0000 0.0000 0.0000 -50547.2187 6077.7476 0.0000 0.0000 4360.5545 -40108.9167 186.9027 -44469.4711 -39506.7937 126.9097 -1044.9156 -865.6109 115021.6536 -655.3243 -653.8950
ENERGY: 800 0.0000 0.0000 0.0000 0.0000 -48789.9419 5799.4715 0.0000 0.0000 5690.6037 -37299.8667 243.9114 -42990.4704 -36675.0387 184.4270 -371.9321 -205.6659 115559.4346 -353.7795 -352.4589
ENERGY: 1000 0.0000 0.0000 0.0000 0.0000 -46424.1053 5261.1079 0.0000 0.0000 7206.8285 -33956.1689 308.9001 -41162.9974 -33188.3554 239.3283 -186.0591 20.7493 116776.2530 -38.7366 -37.0003
