Info: SIMULATION PARAMETERS:
Info: TIMESTEP               2
Info: NUMBER OF STEPS        0
Info: STEPS PER CYCLE        20
Info: PERIODIC CELL BASIS 1  50 0 0
Info: PERIODIC CELL BASIS 2  0 50 0
Info: PERIODIC CELL BASIS 3  0 0 50
Info: PERIODIC CELL CENTER   0 0 0
Info: WRAPPING WATERS AROUND PERIODIC BOUNDARIES ON OUTPUT.
Info: WRAPPING ALL CLUSTERS AROUND PERIODIC BOUNDARIES ON OUTPUT.
Info: FIRST LDB TIMESTEP     100
Info: LAST LDB TIMESTEP     -1
Info: HOM BACKGROUND SCALING 1
Info: PME BACKGROUND SCALING 1
Info: MIN ATOMS PER PATCH    40
Info: INITIAL TEMPERATURE    0
Info: CENTER OF MASS MOVING INITIALLY? NO
Info: DIELECTRIC             1
Info: EXCLUDE                SCALED ONE-FOUR
Info: 1-4 ELECTROSTATICS SCALED BY 1
Info: MODIFIED 1-4 VDW PARAMETERS WILL BE USED
Info: DCD FILENAME           ../output/md1/md1.dcd
Info: DCD FREQUENCY          100
Info: DCD FIRST STEP         100
Info: DCD FILE WILL CONTAIN UNIT CELL DATA
Info: XST FILENAME           ../output/md1/md1.xst
Info: XST FREQUENCY          100
Info: NO VELOCITY DCD OUTPUT
Info: NO FORCE DCD OUTPUT
Info: OUTPUT FILENAME        ../output/md1/md1
Info: BINARY OUTPUT FILES WILL BE USED
Info: RESTART FILENAME       ../output/md1/md1.restart
Info: RESTART FREQUENCY      100
Info: BINARY RESTART FILES WILL BE USED
Info: SWITCHING ACTIVE
Info: VDW FORCE SWITCHING ACTIVE
Info: SWITCHING ON           10
Info: SWITCHING OFF          12
Info: PAIRLIST DISTANCE      13.5
Info: PAIRLIST SHRINK RATE   0.01
Info: PAIRLIST GROW RATE     0.01
Info: PAIRLIST TRIGGER       0.3
Info: PAIRLISTS PER CYCLE    2
Info: PAIRLISTS ENABLED
Info: MARGIN                 0.96
Info: HYDROGEN GROUP CUTOFF  2.5
Info: PATCH DIMENSION        16.96
Info: ENERGY OUTPUT STEPS    100
Info: CROSSTERM ENERGY INCLUDED IN DIHEDRAL
Info: TIMING OUTPUT STEPS    1000
Info: PRESSURE OUTPUT STEPS  100
Info: VELOCITY REASSIGNMENT FREQ  100
Info: VELOCITY REASSIGNMENT TEMP  0
Info: VELOCITY REASSIGNMENT INCR  31
Info: VELOCITY REASSIGNMENT HOLD  310
Info: LANGEVIN PISTON PRESSURE CONTROL ACTIVE
Info:        TARGET PRESSURE IS 1.01325 BAR
Info:     OSCILLATION PERIOD IS 200 FS
Info:             DECAY TIME IS 100 FS
Info:     PISTON TEMPERATURE IS 310 K
Info:       PRESSURE CONTROL IS GROUP-BASED
Info:    INITIAL STRAIN RATE IS 0 0 0
Info:       CELL FLUCTUATION IS ANISOTROPIC
Info:     CONSTANT AREA PRESSURE CONTROL ACTIVE
Info: ACCELERATED MD ACTIVE
Info: BOOSTING TOTAL POTENTIAL
Info: accelMDE: -33966 KCAL/MOL, accelMDalpha: 10000 KCAL/MOL
Info: accelMD WILL BE DONE FROM STEP 100 TO THE END OF THE SIMULATION
Info: accelMD OUTPUT FREQUENCY 100
Info: PARTICLE MESH EWALD (PME) ACTIVE
Info: PME TOLERANCE               1e-06
Info: PME EWALD COEFFICIENT       0.257952
Info: PME INTERPOLATION ORDER     4
Info: PME GRID DIMENSIONS         54 54 54
Info: PME MAXIMUM GRID SPACING    1
Info: FULL ELECTROSTATIC EVALUATION FREQUENCY      2
Info: USING VERLET I (r-RESPA) MTS SCHEME.
Info: C1 SPLITTING OF LONG RANGE ELECTROSTATICS
Info: PLACING ATOMS IN PATCHES BY HYDROGEN GROUPS
Info: RIGID BONDS TO HYDROGEN : ALL
Info:         ERROR TOLERANCE : 1e-08
Info:          MAX ITERATIONS : 100
Info: RIGID WATER USING SETTLE ALGORITHM
Info: RANDOM NUMBER SEED     1498183877
Info: USE HYDROGEN BONDS?    NO
Info: COORDINATE PDB         ../system/system.pdb
Info: STRUCTURE FILE         ../system/system.psf
Info: PARAMETER file: CHARMM format!
Info: PARAMETERS             ../forcefield/par_all36m_prot.prm
Info: PARAMETERS             ../forcefield/par_all36_na.prm
Info: PARAMETERS             ../forcefield/par_all36_lipid.prm
Info: PARAMETERS             ../forcefield/par_all36_carb.prm
Info: PARAMETERS             ../forcefield/par_all36_cgenff.prm
Info: PARAMETERS             ../forcefield/toppar_water_ions.str
Info: USING ARITHMETIC MEAN TO COMBINE L-J SIGMA PARAMETERS
Info: SKIPPING rtf SECTION IN STREAM FILE
Info: SUMMARY OF PARAMETERS:
Info: 933 BONDS
Info: 2721 ANGLES
Info: 6679 DIHEDRAL
Info: 193 IMPROPER
Info: 6 CROSSTERM
Info: 352 VDW
Info: 17 VDW_PAIRS
Info: 0 NBTHOLE_PAIRS
Info: STRUCTURE SUMMARY:
Info: 11741 ATOMS
Info: 7826 BONDS
Info: 3913 ANGLES
Info: 0 DIHEDRALS
Info: 0 IMPROPERS
Info: 0 CROSSTERMS
Info: 0 EXCLUSIONS
Info: 11739 RIGID BONDS
Info: 23481 DEGREES OF FREEDOM
Info: 3915 HYDROGEN GROUPS
Info: 3 ATOMS IN LARGEST HYDROGEN GROUP
Info: 3915 MIGRATION GROUPS
Info: 3 ATOMS IN LARGEST MIGRATION GROUP
Info: TOTAL MASS = 70552.7 amu
Info: TOTAL CHARGE = 0 e
Info: MASS DENSITY = 0.937266 g/cm^3
Info: ATOM DENSITY = 0.093928 atoms/A^3
Info: ADDED 11739 IMPLICIT EXCLUSIONS
Info: NONBONDED TABLE R-SQUARED SPACING: 0.0625
Info: NONBONDED TABLE SIZE: 769 POINTS
Info: REMOVING COM VELOCITY 0 0 0
Info: Updated CUDA force table with 4096 elements.
Info: Updated CUDA LJ table with 352 x 352 elements.
Info: Found 4 unique exclusion lists needing 4 bytes
TCL: Minimizing for 100 steps
ETITLE: TS BOND ANGLE DIHED IMPRP ELECT VDW BOUNDARY MISC KINETIC TOTAL TEMP POTENTIAL TOTAL3 TEMPAVG PRESSURE GPRESSURE VOLUME PRESSAVG GPRESSAVG
ENERGY: 0 0.0000 0.0000 0.0000 0.0000 -37495.6886 202342.1122 0.0000 0.0000 0.0000 164846.4236 0.0000 164846.4236 164846.4236 0.0000 639.3131 -24033.2356 125000.0000 639.3131 -24033.2356
ENERGY: 20 0.0000 0.0000 0.0000 0.0000 -42828.1433 2908.4388 0.0000 0.0000 0.0000 -39919.7044 0.0000 -39919.7044 -39919.7044 0.0000 717.5232 -19496.3524 125000.0000 717.5232 -19496.3524
ENERGY: 40 0.0000 0.0000 0.0000 0.0000 -46045.3315 3384.8479 0.0000 0.0000 0.0000 -42660.4836 0.0000 -42660.4836 -42660.4836 0.0000 738.1497 -21230.0617 125000.0000 738.1497 -21230.0617
ENERGY: 60 0.0000 0.0000 0.0000 0.0000 -46802.2156 3639.8535 0.0000 0.0000 0.0000 -43162.3621 0.0000 -43162.3621 -43162.3621 0.0000 740.1314 -21631.5441 125000.0000 740.1314 -21631.5441
ENERGY: 80 0.0000 0.0000 0.0000 0.0000 -47208.1283 3764.7001 0.0000 0.0000 0.0000 -43443.4282 0.0000 -43443.4282 -43443.4282 0.0000 741.4520 -21844.7099 125000.0000 741.4520 -21844.7099
ENERGY: 100 0.0000 0.0000 0.0000 0.0000 -47872.8101 4021.4787 0.0000 0.0000 0.0000 -43851.3315 0.0000 -43851.3315 -43851.3315 0.0000 742.1999 -22192.8409 125000.0000 742.1999 -22192.8409
TCL: Setting parameter firsttimestep to 0
TCL: Running for 1000 steps
ETITLE: TS BOND ANGLE DIHED IMPRP ELECT VDW BOUNDARY MISC KINETIC TOTAL TEMP POTENTIAL TOTAL3 TEMPAVG PRESSURE GPRESSURE VOLUME PRESSAVG GPRESSAVG
ENERGY: 0 0.0000 0.0000 0.0000 0.0000 -47872.8101 4021.4787 0.0000 0.0000 0.0000 -43851.3315 0.0000 -43851.3315 -43852.1821 0.0000 -6526.3597 -6495.6471 125000.0000 -6526.3597 -6495.6471
ENERGY: 200 0.0000 0.0000 0.0000 0.0000 -50562.6602 6167.8282 0.0000 0.0000 1438.7433 -42956.0887 61.6676 -44394.8321 -42523.9360 21.8779 -244.8789 -132.0640 115638.8348 -212.6666 -211.6224
ENERGY: 400 0.0000 0.0000 0.0000 0.0000 -46482.8080 5193.0735 0.0000 0.0000 2883.8094 -38405.9250 123.6062 -41289.7345 -37866.7808 73.4611 -209.1527 -79.9997 118172.1491 -30.8090 -29.6043
ENERGY: 600 0.0000 0.0000 0.0000 0.0000 -43175.6692 4534.6294 0.0000 0.0000 4328.9818 -34312.0580 185.5494 -38641.0398 -33744.2176 135.6538 -86.5305 53.5739 120403.9462 -27.0587 -25.7801
ENERGY: 800 0.0000 0.0000 0.0000 0.0000 -40901.9921 4021.2105 0.0000 0.0000 5807.4274 -31073.3542 248.9187 -36880.7816 -30534.0338 200.8680 -22.8702 106.2562 122086.2745 62.0477 63.1833
ENERGY: 1000 0.0000 0.0000 0.0000 0.0000 -39356.7498 3704.5384 0.0000 0.0000 7260.9202 -28391.2912 311.2185 -35652.2114 -27824.7804 260.9299 94.0379 237.2578 123446.0799 -27.9982 -26.7832
